<?xml version='1.0' encoding='UTF-8' standalone='no'?>
<doxygen xmlns:xsi="http://www.w3.org/2001/XMLSchema-instance" xsi:noNamespaceSchemaLocation="compound.xsd" version="1.8.5">
  <compounddef id="classdesmoj_1_1extensions_1_1visualization2d_1_1engine_1_1viewer_1_1_viewer_panel_1_1_time_flow" kind="class" prot="package">
    <compoundname>desmoj::extensions::visualization2d::engine::viewer::ViewerPanel::TimeFlow</compoundname>
    <basecompoundref prot="public" virt="non-virtual">ActionListener</basecompoundref>
      <sectiondef kind="public-func">
      <memberdef kind="function" id="classdesmoj_1_1extensions_1_1visualization2d_1_1engine_1_1viewer_1_1_viewer_panel_1_1_time_flow_1a3e2c7b20a51b83173f2978d38a3dbcbc" prot="public" static="no" const="no" explicit="no" inline="yes" virt="non-virtual">
        <type>void</type>
        <definition>void desmoj.extensions.visualization2d.engine.viewer.ViewerPanel.TimeFlow.actionPerformed</definition>
        <argsstring>(ActionEvent e)</argsstring>
        <name>actionPerformed</name>
        <param>
          <type>ActionEvent</type>
          <declname>e</declname>
        </param>
        <briefdescription>
        </briefdescription>
        <detaileddescription>
        </detaileddescription>
        <inbodydescription>
        </inbodydescription>
        <location file="C:/Users/JulyaMaria/Desktop/Desmo-J/desmoj/extensions/visualization2d/engine/viewer/ViewerPanel.java" line="1174" column="1" bodyfile="C:/Users/JulyaMaria/Desktop/Desmo-J/desmoj/extensions/visualization2d/engine/viewer/ViewerPanel.java" bodystart="1174" bodyend="1199"/>
      </memberdef>
      </sectiondef>
    <briefdescription>
    </briefdescription>
    <detaileddescription>
<para>ActionListener of TimeFlow-Menue-Item <simplesect kind="author"><para>Christian </para></simplesect>
</para>    </detaileddescription>
    <inheritancegraph>
      <node id="11432">
        <label>ActionListener</label>
      </node>
      <node id="11431">
        <label>desmoj.extensions.visualization2d.engine.viewer.ViewerPanel.TimeFlow</label>
        <childnode refid="11432" relation="public-inheritance">
        </childnode>
      </node>
    </inheritancegraph>
    <collaborationgraph>
      <node id="11434">
        <label>ActionListener</label>
      </node>
      <node id="11433">
        <label>desmoj.extensions.visualization2d.engine.viewer.ViewerPanel.TimeFlow</label>
        <childnode refid="11434" relation="public-inheritance">
        </childnode>
      </node>
    </collaborationgraph>
    <location file="C:/Users/JulyaMaria/Desktop/Desmo-J/desmoj/extensions/visualization2d/engine/viewer/ViewerPanel.java" line="1172" column="1" bodyfile="C:/Users/JulyaMaria/Desktop/Desmo-J/desmoj/extensions/visualization2d/engine/viewer/ViewerPanel.java" bodystart="1172" bodyend="1200"/>
    <listofallmembers>
      <member refid="classdesmoj_1_1extensions_1_1visualization2d_1_1engine_1_1viewer_1_1_viewer_panel_1_1_time_flow_1a3e2c7b20a51b83173f2978d38a3dbcbc" prot="public" virt="non-virtual"><scope>desmoj::extensions::visualization2d::engine::viewer::ViewerPanel::TimeFlow</scope><name>actionPerformed</name></member>
    </listofallmembers>
  </compounddef>
</doxygen>
